LTspice 24.0.9 for Windows
Circuit: * C:\Users\Zwivh\Downloads\git\EEE3088F_2024_MICROMOUSE\Design\Sensing\sensor\lt_spice_simulation\emitter simulation.asc
Start Time: Thu Mar 21 01:17:26 2024
Warning: Multiple definitions of model "2scr375p" Type: BJT
Warning: Multiple definitions of model "bc857b" Type: BJT
Warning: Multiple definitions of model "bc847c" Type: BJT
Warning: Multiple definitions of model "bc847b" Type: BJT
solver = Normal
Maximum thread count: 4
tnom = 27
temp = 27
method = modified trap
Direct Newton iteration for .op point succeeded.
Total elapsed time: 0.145 seconds.

