LTspice 24.0.9 for Windows
Circuit: * C:\Users\Student\Downloads\git\EEE3088F_2024_MICROMOUSE\Design\Sensing\sensor\lt_spice_simulation\timing circuit simulations.asc
Start Time: Tue Mar 19 17:13:39 2024
Warning: Multiple definitions of model "2scr375p" Type: BJT
Warning: Multiple definitions of model "bc857b" Type: BJT
Warning: Multiple definitions of model "bc847c" Type: BJT
Warning: Multiple definitions of model "bc847b" Type: BJT
solver = Normal
Maximum thread count: 8
tnom = 27
temp = 27
method = modified trap
Direct Newton iteration for .op point succeeded.
Total elapsed time: 0.031 seconds.

